<routes>
    <vType id="vtypeauto" accel="2.6" decel="4.5" sigma="0.5" length="5" minGap="2.5" maxSpeed="55.56" color="1,1,0"/>
    <vehicle id="veh1223" type="vtypeauto" depart="3.21">
        <route edges="end1_junction junction_end4"/>
    </vehicle>
    <vehicle id="veh955" type="vtypeauto" depart="20.26">
        <route edges="end1_junction junction_end2"/>
    </vehicle>
    <vehicle id="veh331" type="vtypeauto" depart="26.53">
        <route edges="end4_junction junction_end2"/>
    </vehicle>
    <vehicle id="veh1581" type="vtypeauto" depart="32.91">
        <route edges="end1_junction junction_end4"/>
    </vehicle>
    <vehicle id="veh1772" type="vtypeauto" depart="50.95">
        <route edges="end2_junction junction_end3"/>
    </vehicle>
    <vehicle id="veh2409" type="vtypeauto" depart="60.02">
        <route edges="end4_junction junction_end2"/>
    </vehicle>
    <vehicle id="veh717" type="vtypeauto" depart="82.71">
        <route edges="end2_junction junction_end4"/>
    </vehicle>
    <vehicle id="veh1734" type="vtypeauto" depart="84.86">
        <route edges="end3_junction junction_end4"/>
    </vehicle>
    <vehicle id="veh2829" type="vtypeauto" depart="87.51">
        <route edges="end1_junction junction_end3"/>
    </vehicle>
    <vehicle id="veh301" type="vtypeauto" depart="96.63">
        <route edges="end4_junction junction_end2"/>
    </vehicle>
    <vehicle id="veh1209" type="vtypeauto" depart="103.80">
        <route edges="end3_junction junction_end2"/>
    </vehicle>
    <vehicle id="veh255" type="vtypeauto" depart="105.30">
        <route edges="end1_junction junction_end2"/>
    </vehicle>
    <vehicle id="veh2983" type="vtypeauto" depart="106.98">
        <route edges="end3_junction junction_end1"/>
    </vehicle>
    <vehicle id="veh1053" type="vtypeauto" depart="109.80">
        <route edges="end3_junction junction_end1"/>
    </vehicle>
    <vehicle id="veh2894" type="vtypeauto" depart="122.04">
        <route edges="end1_junction junction_end2"/>
    </vehicle>
    <vehicle id="veh2647" type="vtypeauto" depart="131.80">
        <route edges="end4_junction junction_end1"/>
    </vehicle>
    <vehicle id="veh641" type="vtypeauto" depart="134.30">
        <route edges="end4_junction junction_end3"/>
    </vehicle>
    <vehicle id="veh845" type="vtypeauto" depart="142.11">
        <route edges="end3_junction junction_end2"/>
    </vehicle>
    <vehicle id="veh1796" type="vtypeauto" depart="150.60">
        <route edges="end1_junction junction_end3"/>
    </vehicle>
    <vehicle id="veh1615" type="vtypeauto" depart="151.61">
        <route edges="end1_junction junction_end4"/>
    </vehicle>
    <vehicle id="veh2523" type="vtypeauto" depart="152.68">
        <route edges="end4_junction junction_end1"/>
    </vehicle>
    <vehicle id="veh2587" type="vtypeauto" depart="156.50">
        <route edges="end2_junction junction_end1"/>
    </vehicle>
    <vehicle id="veh1432" type="vtypeauto" depart="159.57">
        <route edges="end2_junction junction_end3"/>
    </vehicle>
    <vehicle id="veh668" type="vtypeauto" depart="160.24">
        <route edges="end1_junction junction_end3"/>
    </vehicle>
    <vehicle id="veh457" type="vtypeauto" depart="161.74">
        <route edges="end3_junction junction_end4"/>
    </vehicle>
    <vehicle id="veh2350" type="vtypeauto" depart="166.71">
        <route edges="end1_junction junction_end4"/>
    </vehicle>
    <vehicle id="veh1063" type="vtypeauto" depart="169.01">
        <route edges="end1_junction junction_end4"/>
    </vehicle>
    <vehicle id="veh520" type="vtypeauto" depart="171.48">
        <route edges="end1_junction junction_end2"/>
    </vehicle>
    <vehicle id="veh728" type="vtypeauto" depart="175.70">
        <route edges="end4_junction junction_end3"/>
    </vehicle>
    <vehicle id="veh133" type="vtypeauto" depart="176.24">
        <route edges="end2_junction junction_end1"/>
    </vehicle>
    <vehicle id="veh2364" type="vtypeauto" depart="176.33">
        <route edges="end1_junction junction_end2"/>
    </vehicle>
    <vehicle id="veh1656" type="vtypeauto" depart="190.93">
        <route edges="end4_junction junction_end1"/>
    </vehicle>
    <vehicle id="veh547" type="vtypeauto" depart="193.06">
        <route edges="end4_junction junction_end3"/>
    </vehicle>
    <vehicle id="veh219" type="vtypeauto" depart="193.62">
        <route edges="end1_junction junction_end4"/>
    </vehicle>
    <vehicle id="veh598" type="vtypeauto" depart="196.90">
        <route edges="end4_junction junction_end2"/>
    </vehicle>
    <vehicle id="veh907" type="vtypeauto" depart="213.39">
        <route edges="end1_junction junction_end2"/>
    </vehicle>
    <vehicle id="veh2499" type="vtypeauto" depart="215.54">
        <route edges="end1_junction junction_end2"/>
    </vehicle>
    <vehicle id="veh659" type="vtypeauto" depart="215.64">
        <route edges="end2_junction junction_end3"/>
    </vehicle>
    <vehicle id="veh1725" type="vtypeauto" depart="226.92">
        <route edges="end1_junction junction_end3"/>
    </vehicle>
    <vehicle id="veh1601" type="vtypeauto" depart="226.98">
        <route edges="end2_junction junction_end1"/>
    </vehicle>
    <vehicle id="veh2544" type="vtypeauto" depart="228.36">
        <route edges="end1_junction junction_end2"/>
    </vehicle>
    <vehicle id="veh1261" type="vtypeauto" depart="230.42">
        <route edges="end4_junction junction_end1"/>
    </vehicle>
    <vehicle id="veh1299" type="vtypeauto" depart="230.74">
        <route edges="end3_junction junction_end2"/>
    </vehicle>
    <vehicle id="veh454" type="vtypeauto" depart="236.45">
        <route edges="end4_junction junction_end1"/>
    </vehicle>
    <vehicle id="veh1719" type="vtypeauto" depart="238.50">
        <route edges="end4_junction junction_end1"/>
    </vehicle>
    <vehicle id="veh2402" type="vtypeauto" depart="241.51">
        <route edges="end1_junction junction_end4"/>
    </vehicle>
    <vehicle id="veh1249" type="vtypeauto" depart="245.52">
        <route edges="end3_junction junction_end2"/>
    </vehicle>
    <vehicle id="veh2981" type="vtypeauto" depart="245.89">
        <route edges="end2_junction junction_end3"/>
    </vehicle>
    <vehicle id="veh1946" type="vtypeauto" depart="247.41">
        <route edges="end2_junction junction_end1"/>
    </vehicle>
    <vehicle id="veh2196" type="vtypeauto" depart="251.93">
        <route edges="end2_junction junction_end3"/>
    </vehicle>
    <vehicle id="veh1352" type="vtypeauto" depart="252.57">
        <route edges="end2_junction junction_end3"/>
    </vehicle>
    <vehicle id="veh1821" type="vtypeauto" depart="257.73">
        <route edges="end3_junction junction_end1"/>
    </vehicle>
    <vehicle id="veh2561" type="vtypeauto" depart="259.48">
        <route edges="end1_junction junction_end4"/>
    </vehicle>
    <vehicle id="veh2966" type="vtypeauto" depart="274.26">
        <route edges="end1_junction junction_end4"/>
    </vehicle>
    <vehicle id="veh1639" type="vtypeauto" depart="275.94">
        <route edges="end1_junction junction_end4"/>
    </vehicle>
    <vehicle id="veh2570" type="vtypeauto" depart="291.93">
        <route edges="end4_junction junction_end3"/>
    </vehicle>
    <vehicle id="veh1511" type="vtypeauto" depart="293.54">
        <route edges="end4_junction junction_end2"/>
    </vehicle>
    <vehicle id="veh797" type="vtypeauto" depart="294.65">
        <route edges="end4_junction junction_end1"/>
    </vehicle>
    <vehicle id="veh2462" type="vtypeauto" depart="304.36">
        <route edges="end1_junction junction_end4"/>
    </vehicle>
    <vehicle id="veh2110" type="vtypeauto" depart="320.92">
        <route edges="end3_junction junction_end1"/>
    </vehicle>
    <vehicle id="veh780" type="vtypeauto" depart="332.65">
        <route edges="end1_junction junction_end3"/>
    </vehicle>
    <vehicle id="veh2516" type="vtypeauto" depart="346.20">
        <route edges="end2_junction junction_end4"/>
    </vehicle>
    <vehicle id="veh2816" type="vtypeauto" depart="348.53">
        <route edges="end1_junction junction_end2"/>
    </vehicle>
    <vehicle id="veh299" type="vtypeauto" depart="355.18">
        <route edges="end2_junction junction_end3"/>
    </vehicle>
    <vehicle id="veh2854" type="vtypeauto" depart="358.30">
        <route edges="end3_junction junction_end4"/>
    </vehicle>
    <vehicle id="veh684" type="vtypeauto" depart="372.19">
        <route edges="end3_junction junction_end1"/>
    </vehicle>
    <vehicle id="veh141" type="vtypeauto" depart="387.90">
        <route edges="end2_junction junction_end1"/>
    </vehicle>
    <vehicle id="veh2444" type="vtypeauto" depart="388.67">
        <route edges="end3_junction junction_end2"/>
    </vehicle>
    <vehicle id="veh1200" type="vtypeauto" depart="389.79">
        <route edges="end4_junction junction_end3"/>
    </vehicle>
    <vehicle id="veh1525" type="vtypeauto" depart="395.12">
        <route edges="end3_junction junction_end1"/>
    </vehicle>
    <vehicle id="veh2789" type="vtypeauto" depart="399.05">
        <route edges="end2_junction junction_end4"/>
    </vehicle>
    <vehicle id="veh1041" type="vtypeauto" depart="403.52">
        <route edges="end4_junction junction_end1"/>
    </vehicle>
    <vehicle id="veh2504" type="vtypeauto" depart="409.10">
        <route edges="end2_junction junction_end4"/>
    </vehicle>
    <vehicle id="veh2972" type="vtypeauto" depart="411.07">
        <route edges="end2_junction junction_end4"/>
    </vehicle>
    <vehicle id="veh407" type="vtypeauto" depart="411.31">
        <route edges="end1_junction junction_end3"/>
    </vehicle>
    <vehicle id="veh1289" type="vtypeauto" depart="421.14">
        <route edges="end2_junction junction_end3"/>
    </vehicle>
    <vehicle id="veh2823" type="vtypeauto" depart="431.61">
        <route edges="end3_junction junction_end1"/>
    </vehicle>
    <vehicle id="veh401" type="vtypeauto" depart="433.12">
        <route edges="end1_junction junction_end2"/>
    </vehicle>
    <vehicle id="veh1000" type="vtypeauto" depart="448.86">
        <route edges="end3_junction junction_end2"/>
    </vehicle>
    <vehicle id="veh787" type="vtypeauto" depart="453.12">
        <route edges="end4_junction junction_end1"/>
    </vehicle>
    <vehicle id="veh568" type="vtypeauto" depart="456.15">
        <route edges="end1_junction junction_end3"/>
    </vehicle>
    <vehicle id="veh297" type="vtypeauto" depart="458.58">
        <route edges="end4_junction junction_end2"/>
    </vehicle>
    <vehicle id="veh526" type="vtypeauto" depart="469.50">
        <route edges="end1_junction junction_end4"/>
    </vehicle>
    <vehicle id="veh867" type="vtypeauto" depart="470.35">
        <route edges="end2_junction junction_end3"/>
    </vehicle>
    <vehicle id="veh403" type="vtypeauto" depart="472.17">
        <route edges="end2_junction junction_end3"/>
    </vehicle>
    <vehicle id="veh1384" type="vtypeauto" depart="474.15">
        <route edges="end3_junction junction_end1"/>
    </vehicle>
    <vehicle id="veh118" type="vtypeauto" depart="478.29">
        <route edges="end2_junction junction_end3"/>
    </vehicle>
    <vehicle id="veh1871" type="vtypeauto" depart="479.73">
        <route edges="end4_junction junction_end1"/>
    </vehicle>
    <vehicle id="veh2328" type="vtypeauto" depart="486.05">
        <route edges="end1_junction junction_end3"/>
    </vehicle>
    <vehicle id="veh2217" type="vtypeauto" depart="486.84">
        <route edges="end3_junction junction_end2"/>
    </vehicle>
    <vehicle id="veh1404" type="vtypeauto" depart="491.89">
        <route edges="end2_junction junction_end4"/>
    </vehicle>
    <vehicle id="veh1486" type="vtypeauto" depart="495.37">
        <route edges="end1_junction junction_end4"/>
    </vehicle>
    <vehicle id="veh2160" type="vtypeauto" depart="499.81">
        <route edges="end4_junction junction_end2"/>
    </vehicle>
    <vehicle id="veh2810" type="vtypeauto" depart="514.31">
        <route edges="end1_junction junction_end3"/>
    </vehicle>
    <vehicle id="veh592" type="vtypeauto" depart="517.06">
        <route edges="end2_junction junction_end1"/>
    </vehicle>
    <vehicle id="veh2526" type="vtypeauto" depart="517.50">
        <route edges="end4_junction junction_end1"/>
    </vehicle>
    <vehicle id="veh788" type="vtypeauto" depart="532.00">
        <route edges="end1_junction junction_end3"/>
    </vehicle>
    <vehicle id="veh1635" type="vtypeauto" depart="543.30">
        <route edges="end2_junction junction_end3"/>
    </vehicle>
    <vehicle id="veh2141" type="vtypeauto" depart="557.33">
        <route edges="end2_junction junction_end1"/>
    </vehicle>
    <vehicle id="veh2101" type="vtypeauto" depart="558.44">
        <route edges="end2_junction junction_end3"/>
    </vehicle>
    <vehicle id="veh2629" type="vtypeauto" depart="565.66">
        <route edges="end4_junction junction_end2"/>
    </vehicle>
    <vehicle id="veh1962" type="vtypeauto" depart="577.95">
        <route edges="end4_junction junction_end1"/>
    </vehicle>
    <vehicle id="veh2709" type="vtypeauto" depart="595.79">
        <route edges="end3_junction junction_end2"/>
    </vehicle>
    <vehicle id="veh2483" type="vtypeauto" depart="597.10">
        <route edges="end1_junction junction_end3"/>
    </vehicle>
    <vehicle id="veh171" type="vtypeauto" depart="601.82">
        <route edges="end2_junction junction_end3"/>
    </vehicle>
    <vehicle id="veh2068" type="vtypeauto" depart="605.10">
        <route edges="end3_junction junction_end4"/>
    </vehicle>
    <vehicle id="veh2471" type="vtypeauto" depart="613.97">
        <route edges="end3_junction junction_end4"/>
    </vehicle>
    <vehicle id="veh446" type="vtypeauto" depart="625.88">
        <route edges="end1_junction junction_end2"/>
    </vehicle>
    <vehicle id="veh483" type="vtypeauto" depart="629.01">
        <route edges="end1_junction junction_end2"/>
    </vehicle>
    <vehicle id="veh121" type="vtypeauto" depart="631.57">
        <route edges="end3_junction junction_end4"/>
    </vehicle>
    <vehicle id="veh2912" type="vtypeauto" depart="641.51">
        <route edges="end3_junction junction_end4"/>
    </vehicle>
    <vehicle id="veh2192" type="vtypeauto" depart="641.64">
        <route edges="end2_junction junction_end3"/>
    </vehicle>
    <vehicle id="veh1368" type="vtypeauto" depart="641.69">
        <route edges="end3_junction junction_end4"/>
    </vehicle>
    <vehicle id="veh2373" type="vtypeauto" depart="654.20">
        <route edges="end1_junction junction_end2"/>
    </vehicle>
    <vehicle id="veh176" type="vtypeauto" depart="657.22">
        <route edges="end1_junction junction_end4"/>
    </vehicle>
    <vehicle id="veh1310" type="vtypeauto" depart="675.08">
        <route edges="end1_junction junction_end3"/>
    </vehicle>
    <vehicle id="veh2005" type="vtypeauto" depart="684.43">
        <route edges="end2_junction junction_end3"/>
    </vehicle>
    <vehicle id="veh90" type="vtypeauto" depart="689.01">
        <route edges="end3_junction junction_end4"/>
    </vehicle>
    <vehicle id="veh1861" type="vtypeauto" depart="691.45">
        <route edges="end2_junction junction_end1"/>
    </vehicle>
    <vehicle id="veh832" type="vtypeauto" depart="697.86">
        <route edges="end1_junction junction_end4"/>
    </vehicle>
    <vehicle id="veh1034" type="vtypeauto" depart="702.19">
        <route edges="end4_junction junction_end2"/>
    </vehicle>
    <vehicle id="veh190" type="vtypeauto" depart="702.96">
        <route edges="end4_junction junction_end3"/>
    </vehicle>
    <vehicle id="veh2750" type="vtypeauto" depart="703.26">
        <route edges="end4_junction junction_end1"/>
    </vehicle>
    <vehicle id="veh1629" type="vtypeauto" depart="707.71">
        <route edges="end3_junction junction_end2"/>
    </vehicle>
    <vehicle id="veh1208" type="vtypeauto" depart="716.92">
        <route edges="end1_junction junction_end2"/>
    </vehicle>
    <vehicle id="veh2584" type="vtypeauto" depart="720.02">
        <route edges="end3_junction junction_end4"/>
    </vehicle>
    <vehicle id="veh1338" type="vtypeauto" depart="723.36">
        <route edges="end3_junction junction_end2"/>
    </vehicle>
    <vehicle id="veh367" type="vtypeauto" depart="726.90">
        <route edges="end2_junction junction_end3"/>
    </vehicle>
    <vehicle id="veh1967" type="vtypeauto" depart="730.98">
        <route edges="end4_junction junction_end1"/>
    </vehicle>
    <vehicle id="veh2061" type="vtypeauto" depart="737.87">
        <route edges="end3_junction junction_end1"/>
    </vehicle>
    <vehicle id="veh1860" type="vtypeauto" depart="756.87">
        <route edges="end1_junction junction_end4"/>
    </vehicle>
    <vehicle id="veh1846" type="vtypeauto" depart="761.38">
        <route edges="end1_junction junction_end2"/>
    </vehicle>
    <vehicle id="veh2074" type="vtypeauto" depart="762.89">
        <route edges="end3_junction junction_end1"/>
    </vehicle>
    <vehicle id="veh18" type="vtypeauto" depart="782.18">
        <route edges="end4_junction junction_end2"/>
    </vehicle>
    <vehicle id="veh1607" type="vtypeauto" depart="782.48">
        <route edges="end4_junction junction_end3"/>
    </vehicle>
    <vehicle id="veh2112" type="vtypeauto" depart="783.73">
        <route edges="end4_junction junction_end2"/>
    </vehicle>
    <vehicle id="veh1112" type="vtypeauto" depart="784.88">
        <route edges="end1_junction junction_end4"/>
    </vehicle>
    <vehicle id="veh2146" type="vtypeauto" depart="788.78">
        <route edges="end1_junction junction_end2"/>
    </vehicle>
    <vehicle id="veh2924" type="vtypeauto" depart="791.72">
        <route edges="end1_junction junction_end2"/>
    </vehicle>
    <vehicle id="veh419" type="vtypeauto" depart="792.36">
        <route edges="end4_junction junction_end1"/>
    </vehicle>
    <vehicle id="veh126" type="vtypeauto" depart="793.35">
        <route edges="end1_junction junction_end2"/>
    </vehicle>
    <vehicle id="veh1569" type="vtypeauto" depart="799.92">
        <route edges="end4_junction junction_end3"/>
    </vehicle>
    <vehicle id="veh817" type="vtypeauto" depart="802.71">
        <route edges="end1_junction junction_end2"/>
    </vehicle>
    <vehicle id="veh657" type="vtypeauto" depart="823.07">
        <route edges="end1_junction junction_end3"/>
    </vehicle>
    <vehicle id="veh2565" type="vtypeauto" depart="828.73">
        <route edges="end1_junction junction_end2"/>
    </vehicle>
    <vehicle id="veh2066" type="vtypeauto" depart="832.64">
        <route edges="end3_junction junction_end2"/>
    </vehicle>
    <vehicle id="veh1706" type="vtypeauto" depart="840.82">
        <route edges="end4_junction junction_end1"/>
    </vehicle>
    <vehicle id="veh2138" type="vtypeauto" depart="848.86">
        <route edges="end2_junction junction_end4"/>
    </vehicle>
    <vehicle id="veh2376" type="vtypeauto" depart="857.72">
        <route edges="end3_junction junction_end1"/>
    </vehicle>
    <vehicle id="veh1985" type="vtypeauto" depart="858.79">
        <route edges="end4_junction junction_end3"/>
    </vehicle>
    <vehicle id="veh2937" type="vtypeauto" depart="877.38">
        <route edges="end3_junction junction_end2"/>
    </vehicle>
    <vehicle id="veh626" type="vtypeauto" depart="877.51">
        <route edges="end1_junction junction_end4"/>
    </vehicle>
    <vehicle id="veh1267" type="vtypeauto" depart="883.06">
        <route edges="end3_junction junction_end2"/>
    </vehicle>
    <vehicle id="veh610" type="vtypeauto" depart="883.91">
        <route edges="end1_junction junction_end4"/>
    </vehicle>
    <vehicle id="veh2148" type="vtypeauto" depart="894.94">
        <route edges="end1_junction junction_end4"/>
    </vehicle>
    <vehicle id="veh2195" type="vtypeauto" depart="906.09">
        <route edges="end3_junction junction_end1"/>
    </vehicle>
    <vehicle id="veh2959" type="vtypeauto" depart="918.01">
        <route edges="end3_junction junction_end2"/>
    </vehicle>
    <vehicle id="veh915" type="vtypeauto" depart="918.83">
        <route edges="end3_junction junction_end1"/>
    </vehicle>
    <vehicle id="veh1716" type="vtypeauto" depart="923.84">
        <route edges="end1_junction junction_end4"/>
    </vehicle>
    <vehicle id="veh783" type="vtypeauto" depart="929.67">
        <route edges="end2_junction junction_end1"/>
    </vehicle>
    <vehicle id="veh2738" type="vtypeauto" depart="933.44">
        <route edges="end1_junction junction_end4"/>
    </vehicle>
    <vehicle id="veh2842" type="vtypeauto" depart="945.13">
        <route edges="end3_junction junction_end4"/>
    </vehicle>
    <vehicle id="veh2044" type="vtypeauto" depart="952.98">
        <route edges="end1_junction junction_end3"/>
    </vehicle>
    <vehicle id="veh2305" type="vtypeauto" depart="953.44">
        <route edges="end1_junction junction_end3"/>
    </vehicle>
    <vehicle id="veh2395" type="vtypeauto" depart="970.49">
        <route edges="end1_junction junction_end2"/>
    </vehicle>
    <vehicle id="veh1538" type="vtypeauto" depart="974.67">
        <route edges="end3_junction junction_end1"/>
    </vehicle>
    <vehicle id="veh2590" type="vtypeauto" depart="976.88">
        <route edges="end2_junction junction_end1"/>
    </vehicle>
    <vehicle id="veh466" type="vtypeauto" depart="1003.04">
        <route edges="end4_junction junction_end3"/>
    </vehicle>
    <vehicle id="veh2660" type="vtypeauto" depart="1006.09">
        <route edges="end3_junction junction_end1"/>
    </vehicle>
    <vehicle id="veh264" type="vtypeauto" depart="1006.61">
        <route edges="end2_junction junction_end3"/>
    </vehicle>
    <vehicle id="veh1564" type="vtypeauto" depart="1008.54">
        <route edges="end1_junction junction_end2"/>
    </vehicle>
    <vehicle id="veh2674" type="vtypeauto" depart="1015.35">
        <route edges="end2_junction junction_end3"/>
    </vehicle>
    <vehicle id="veh2228" type="vtypeauto" depart="1021.78">
        <route edges="end2_junction junction_end4"/>
    </vehicle>
    <vehicle id="veh376" type="vtypeauto" depart="1023.52">
        <route edges="end1_junction junction_end2"/>
    </vehicle>
    <vehicle id="veh1959" type="vtypeauto" depart="1026.47">
        <route edges="end4_junction junction_end1"/>
    </vehicle>
    <vehicle id="veh1800" type="vtypeauto" depart="1026.84">
        <route edges="end4_junction junction_end2"/>
    </vehicle>
    <vehicle id="veh704" type="vtypeauto" depart="1034.48">
        <route edges="end2_junction junction_end1"/>
    </vehicle>
    <vehicle id="veh469" type="vtypeauto" depart="1035.09">
        <route edges="end2_junction junction_end3"/>
    </vehicle>
    <vehicle id="veh1692" type="vtypeauto" depart="1035.37">
        <route edges="end2_junction junction_end1"/>
    </vehicle>
    <vehicle id="veh1839" type="vtypeauto" depart="1040.74">
        <route edges="end1_junction junction_end2"/>
    </vehicle>
    <vehicle id="veh122" type="vtypeauto" depart="1049.44">
        <route edges="end4_junction junction_end3"/>
    </vehicle>
    <vehicle id="veh1776" type="vtypeauto" depart="1051.23">
        <route edges="end3_junction junction_end1"/>
    </vehicle>
    <vehicle id="veh1670" type="vtypeauto" depart="1066.18">
        <route edges="end2_junction junction_end4"/>
    </vehicle>
    <vehicle id="veh1755" type="vtypeauto" depart="1070.87">
        <route edges="end2_junction junction_end4"/>
    </vehicle>
    <vehicle id="veh755" type="vtypeauto" depart="1073.62">
        <route edges="end3_junction junction_end1"/>
    </vehicle>
    <vehicle id="veh831" type="vtypeauto" depart="1081.46">
        <route edges="end3_junction junction_end4"/>
    </vehicle>
    <vehicle id="veh843" type="vtypeauto" depart="1092.67">
        <route edges="end1_junction junction_end2"/>
    </vehicle>
    <vehicle id="veh1968" type="vtypeauto" depart="1093.20">
        <route edges="end2_junction junction_end3"/>
    </vehicle>
    <vehicle id="veh938" type="vtypeauto" depart="1094.13">
        <route edges="end1_junction junction_end4"/>
    </vehicle>
    <vehicle id="veh2756" type="vtypeauto" depart="1096.10">
        <route edges="end4_junction junction_end1"/>
    </vehicle>
    <vehicle id="veh1840" type="vtypeauto" depart="1102.03">
        <route edges="end4_junction junction_end2"/>
    </vehicle>
    <vehicle id="veh1471" type="vtypeauto" depart="1103.09">
        <route edges="end2_junction junction_end1"/>
    </vehicle>
    <vehicle id="veh11" type="vtypeauto" depart="1138.63">
        <route edges="end4_junction junction_end2"/>
    </vehicle>
    <vehicle id="veh1848" type="vtypeauto" depart="1148.91">
        <route edges="end2_junction junction_end4"/>
    </vehicle>
    <vehicle id="veh48" type="vtypeauto" depart="1152.09">
        <route edges="end4_junction junction_end1"/>
    </vehicle>
    <vehicle id="veh2607" type="vtypeauto" depart="1159.50">
        <route edges="end4_junction junction_end1"/>
    </vehicle>
    <vehicle id="veh2935" type="vtypeauto" depart="1163.88">
        <route edges="end2_junction junction_end4"/>
    </vehicle>
    <vehicle id="veh1519" type="vtypeauto" depart="1173.05">
        <route edges="end4_junction junction_end3"/>
    </vehicle>
    <vehicle id="veh2130" type="vtypeauto" depart="1180.17">
        <route edges="end4_junction junction_end2"/>
    </vehicle>
    <vehicle id="veh2223" type="vtypeauto" depart="1188.27">
        <route edges="end4_junction junction_end1"/>
    </vehicle>
    <vehicle id="veh307" type="vtypeauto" depart="1188.90">
        <route edges="end4_junction junction_end3"/>
    </vehicle>
    <vehicle id="veh2079" type="vtypeauto" depart="1192.01">
        <route edges="end2_junction junction_end4"/>
    </vehicle>
    <vehicle id="veh2340" type="vtypeauto" depart="1192.02">
        <route edges="end3_junction junction_end4"/>
    </vehicle>
    <vehicle id="veh714" type="vtypeauto" depart="1201.80">
        <route edges="end3_junction junction_end1"/>
    </vehicle>
    <vehicle id="veh1294" type="vtypeauto" depart="1203.83">
        <route edges="end4_junction junction_end3"/>
    </vehicle>
    <vehicle id="veh1520" type="vtypeauto" depart="1208.55">
        <route edges="end3_junction junction_end4"/>
    </vehicle>
    <vehicle id="veh258" type="vtypeauto" depart="1210.94">
        <route edges="end3_junction junction_end1"/>
    </vehicle>
    <vehicle id="veh1548" type="vtypeauto" depart="1228.51">
        <route edges="end2_junction junction_end4"/>
    </vehicle>
    <vehicle id="veh2304" type="vtypeauto" depart="1230.54">
        <route edges="end4_junction junction_end1"/>
    </vehicle>
    <vehicle id="veh1211" type="vtypeauto" depart="1232.26">
        <route edges="end4_junction junction_end2"/>
    </vehicle>
    <vehicle id="veh430" type="vtypeauto" depart="1233.23">
        <route edges="end1_junction junction_end4"/>
    </vehicle>
    <vehicle id="veh1518" type="vtypeauto" depart="1255.97">
        <route edges="end1_junction junction_end2"/>
    </vehicle>
    <vehicle id="veh1647" type="vtypeauto" depart="1263.23">
        <route edges="end4_junction junction_end1"/>
    </vehicle>
    <vehicle id="veh406" type="vtypeauto" depart="1265.28">
        <route edges="end1_junction junction_end4"/>
    </vehicle>
    <vehicle id="veh1207" type="vtypeauto" depart="1274.06">
        <route edges="end4_junction junction_end3"/>
    </vehicle>
    <vehicle id="veh1231" type="vtypeauto" depart="1274.95">
        <route edges="end4_junction junction_end1"/>
    </vehicle>
    <vehicle id="veh338" type="vtypeauto" depart="1275.59">
        <route edges="end1_junction junction_end2"/>
    </vehicle>
    <vehicle id="veh91" type="vtypeauto" depart="1281.03">
        <route edges="end2_junction junction_end4"/>
    </vehicle>
    <vehicle id="veh658" type="vtypeauto" depart="1285.63">
        <route edges="end2_junction junction_end4"/>
    </vehicle>
    <vehicle id="veh310" type="vtypeauto" depart="1292.17">
        <route edges="end1_junction junction_end3"/>
    </vehicle>
    <vehicle id="veh508" type="vtypeauto" depart="1299.11">
        <route edges="end3_junction junction_end1"/>
    </vehicle>
    <vehicle id="veh1280" type="vtypeauto" depart="1299.14">
        <route edges="end2_junction junction_end3"/>
    </vehicle>
    <vehicle id="veh1060" type="vtypeauto" depart="1302.22">
        <route edges="end3_junction junction_end4"/>
    </vehicle>
    <vehicle id="veh1248" type="vtypeauto" depart="1306.15">
        <route edges="end2_junction junction_end3"/>
    </vehicle>
    <vehicle id="veh971" type="vtypeauto" depart="1307.13">
        <route edges="end4_junction junction_end3"/>
    </vehicle>
    <vehicle id="veh1434" type="vtypeauto" depart="1310.27">
        <route edges="end2_junction junction_end1"/>
    </vehicle>
    <vehicle id="veh2290" type="vtypeauto" depart="1312.85">
        <route edges="end3_junction junction_end1"/>
    </vehicle>
    <vehicle id="veh2930" type="vtypeauto" depart="1323.01">
        <route edges="end4_junction junction_end1"/>
    </vehicle>
    <vehicle id="veh682" type="vtypeauto" depart="1323.58">
        <route edges="end3_junction junction_end1"/>
    </vehicle>
    <vehicle id="veh948" type="vtypeauto" depart="1323.65">
        <route edges="end2_junction junction_end4"/>
    </vehicle>
    <vehicle id="veh1619" type="vtypeauto" depart="1329.27">
        <route edges="end1_junction junction_end2"/>
    </vehicle>
    <vehicle id="veh472" type="vtypeauto" depart="1331.57">
        <route edges="end4_junction junction_end2"/>
    </vehicle>
    <vehicle id="veh1059" type="vtypeauto" depart="1334.96">
        <route edges="end4_junction junction_end2"/>
    </vehicle>
    <vehicle id="veh464" type="vtypeauto" depart="1337.54">