<routes>
    <vType id="vtypeauto" accel="2.6" decel="4.5" sigma="0.5" length="5" minGap="2.5" maxSpeed="55.56" color="1,1,0"/>
    <vehicle id="veh167" type="vtypeauto" depart="0.28">
        <route edges="end4_junction junction_end3"/>
    </vehicle>
    <vehicle id="veh1746" type="vtypeauto" depart="14.93">
        <route edges="end4_junction junction_end2"/>
    </vehicle>
    <vehicle id="veh261" type="vtypeauto" depart="15.72">
        <route edges="end3_junction junction_end1"/>
    </vehicle>
    <vehicle id="veh1069" type="vtypeauto" depart="20.50">
        <route edges="end2_junction junction_end3"/>
    </vehicle>
    <vehicle id="veh2901" type="vtypeauto" depart="23.13">
        <route edges="end4_junction junction_end3"/>
    </vehicle>
    <vehicle id="veh2941" type="vtypeauto" depart="31.66">
        <route edges="end4_junction junction_end3"/>
    </vehicle>
    <vehicle id="veh1140" type="vtypeauto" depart="35.27">
        <route edges="end4_junction junction_end2"/>
    </vehicle>
    <vehicle id="veh1597" type="vtypeauto" depart="53.38">
        <route edges="end1_junction junction_end4"/>
    </vehicle>
    <vehicle id="veh2950" type="vtypeauto" depart="75.77">
        <route edges="end4_junction junction_end1"/>
    </vehicle>
    <vehicle id="veh1824" type="vtypeauto" depart="77.37">
        <route edges="end2_junction junction_end3"/>
    </vehicle>
    <vehicle id="veh660" type="vtypeauto" depart="81.98">
        <route edges="end2_junction junction_end3"/>
    </vehicle>
    <vehicle id="veh156" type="vtypeauto" depart="84.44">
        <route edges="end2_junction junction_end3"/>
    </vehicle>
    <vehicle id="veh1827" type="vtypeauto" depart="98.64">
        <route edges="end4_junction junction_end3"/>
    </vehicle>
    <vehicle id="veh1845" type="vtypeauto" depart="114.56">
        <route edges="end1_junction junction_end4"/>
    </vehicle>
    <vehicle id="veh1644" type="vtypeauto" depart="116.32">
        <route edges="end2_junction junction_end1"/>
    </vehicle>
    <vehicle id="veh230" type="vtypeauto" depart="120.39">
        <route edges="end1_junction junction_end2"/>
    </vehicle>
    <vehicle id="veh439" type="vtypeauto" depart="129.62">
        <route edges="end2_junction junction_end4"/>
    </vehicle>
    <vehicle id="veh1605" type="vtypeauto" depart="133.33">
        <route edges="end3_junction junction_end4"/>
    </vehicle>
    <vehicle id="veh402" type="vtypeauto" depart="134.27">
        <route edges="end4_junction junction_end3"/>
    </vehicle>
    <vehicle id="veh1513" type="vtypeauto" depart="137.54">
        <route edges="end4_junction junction_end2"/>
    </vehicle>
    <vehicle id="veh751" type="vtypeauto" depart="146.98">
        <route edges="end4_junction junction_end2"/>
    </vehicle>
    <vehicle id="veh274" type="vtypeauto" depart="147.66">
        <route edges="end4_junction junction_end2"/>
    </vehicle>
    <vehicle id="veh2847" type="vtypeauto" depart="154.83">
        <route edges="end2_junction junction_end3"/>
    </vehicle>
    <vehicle id="veh838" type="vtypeauto" depart="158.32">
        <route edges="end3_junction junction_end1"/>
    </vehicle>
    <vehicle id="veh2086" type="vtypeauto" depart="170.79">
        <route edges="end4_junction junction_end1"/>
    </vehicle>
    <vehicle id="veh615" type="vtypeauto" depart="170.92">
        <route edges="end4_junction junction_end1"/>
    </vehicle>
    <vehicle id="veh1095" type="vtypeauto" depart="174.94">
        <route edges="end3_junction junction_end2"/>
    </vehicle>
    <vehicle id="veh2602" type="vtypeauto" depart="184.43">
        <route edges="end1_junction junction_end2"/>
    </vehicle>
    <vehicle id="veh1618" type="vtypeauto" depart="210.69">
        <route edges="end1_junction junction_end2"/>
    </vehicle>
    <vehicle id="veh1978" type="vtypeauto" depart="237.12">
        <route edges="end2_junction junction_end1"/>
    </vehicle>
    <vehicle id="veh175" type="vtypeauto" depart="237.39">
        <route edges="end3_junction junction_end1"/>
    </vehicle>
    <vehicle id="veh1411" type="vtypeauto" depart="238.96">
        <route edges="end3_junction junction_end2"/>
    </vehicle>
    <vehicle id="veh1803" type="vtypeauto" depart="246.94">
        <route edges="end2_junction junction_end3"/>
    </vehicle>
    <vehicle id="veh1405" type="vtypeauto" depart="250.99">
        <route edges="end2_junction junction_end3"/>
    </vehicle>
    <vehicle id="veh1292" type="vtypeauto" depart="251.44">
        <route edges="end1_junction junction_end3"/>
    </vehicle>
    <vehicle id="veh2107" type="vtypeauto" depart="252.17">
        <route edges="end2_junction junction_end1"/>
    </vehicle>
    <vehicle id="veh800" type="vtypeauto" depart="256.64">
        <route edges="end3_junction junction_end4"/>
    </vehicle>
    <vehicle id="veh801" type="vtypeauto" depart="263.49">
        <route edges="end1_junction junction_end4"/>
    </vehicle>
    <vehicle id="veh907" type="vtypeauto" depart="282.91">
        <route edges="end4_junction junction_end3"/>
    </vehicle>
    <vehicle id="veh638" type="vtypeauto" depart="287.39">
        <route edges="end2_junction junction_end3"/>
    </vehicle>
    <vehicle id="veh2013" type="vtypeauto" depart="289.60">
        <route edges="end4_junction junction_end2"/>
    </vehicle>
    <vehicle id="veh807" type="vtypeauto" depart="299.06">
        <route edges="end3_junction junction_end1"/>
    </vehicle>
    <vehicle id="veh2501" type="vtypeauto" depart="312.23">
        <route edges="end4_junction junction_end3"/>
    </vehicle>
    <vehicle id="veh841" type="vtypeauto" depart="313.43">
        <route edges="end3_junction junction_end4"/>
    </vehicle>
    <vehicle id="veh2892" type="vtypeauto" depart="320.50">
        <route edges="end4_junction junction_end3"/>
    </vehicle>
    <vehicle id="veh1784" type="vtypeauto" depart="322.19">
        <route edges="end1_junction junction_end4"/>
    </vehicle>
    <vehicle id="veh1330" type="vtypeauto" depart="336.79">
        <route edges="end2_junction junction_end1"/>
    </vehicle>
    <vehicle id="veh2746" type="vtypeauto" depart="354.58">
        <route edges="end1_junction junction_end3"/>
    </vehicle>
    <vehicle id="veh1034" type="vtypeauto" depart="369.89">
        <route edges="end4_junction junction_end2"/>
    </vehicle>
    <vehicle id="veh2500" type="vtypeauto" depart="371.45">
        <route edges="end2_junction junction_end3"/>
    </vehicle>
    <vehicle id="veh1217" type="vtypeauto" depart="381.07">
        <route edges="end4_junction junction_end3"/>
    </vehicle>
    <vehicle id="veh2636" type="vtypeauto" depart="389.24">
        <route edges="end1_junction junction_end2"/>
    </vehicle>
    <vehicle id="veh2729" type="vtypeauto" depart="389.67">
        <route edges="end2_junction junction_end4"/>
    </vehicle>
    <vehicle id="veh1398" type="vtypeauto" depart="395.50">
        <route edges="end3_junction junction_end1"/>
    </vehicle>
    <vehicle id="veh2661" type="vtypeauto" depart="412.45">
        <route edges="end4_junction junction_end3"/>
    </vehicle>
    <vehicle id="veh1957" type="vtypeauto" depart="418.82">
        <route edges="end1_junction junction_end3"/>
    </vehicle>
    <vehicle id="veh1193" type="vtypeauto" depart="429.39">
        <route edges="end2_junction junction_end4"/>
    </vehicle>
    <vehicle id="veh289" type="vtypeauto" depart="432.47">
        <route edges="end2_junction junction_end1"/>
    </vehicle>
    <vehicle id="veh1819" type="vtypeauto" depart="433.16">
        <route edges="end2_junction junction_end4"/>
    </vehicle>
    <vehicle id="veh2303" type="vtypeauto" depart="435.59">
        <route edges="end1_junction junction_end3"/>
    </vehicle>
    <vehicle id="veh1336" type="vtypeauto" depart="442.75">
        <route edges="end3_junction junction_end2"/>
    </vehicle>
    <vehicle id="veh2416" type="vtypeauto" depart="443.73">
        <route edges="end2_junction junction_end3"/>
    </vehicle>
    <vehicle id="veh1214" type="vtypeauto" depart="447.76">
        <route edges="end1_junction junction_end4"/>
    </vehicle>
    <vehicle id="veh2572" type="vtypeauto" depart="452.59">
        <route edges="end1_junction junction_end4"/>
    </vehicle>
    <vehicle id="veh701" type="vtypeauto" depart="454.53">
        <route edges="end4_junction junction_end3"/>
    </vehicle>
    <vehicle id="veh1288" type="vtypeauto" depart="455.10">
        <route edges="end4_junction junction_end1"/>
    </vehicle>
    <vehicle id="veh851" type="vtypeauto" depart="455.22">
        <route edges="end4_junction junction_end2"/>
    </vehicle>
    <vehicle id="veh2585" type="vtypeauto" depart="467.38">
        <route edges="end1_junction junction_end2"/>
    </vehicle>
    <vehicle id="veh451" type="vtypeauto" depart="468.59">
        <route edges="end4_junction junction_end1"/>
    </vehicle>
    <vehicle id="veh2463" type="vtypeauto" depart="474.36">
        <route edges="end1_junction junction_end4"/>
    </vehicle>
    <vehicle id="veh40" type="vtypeauto" depart="478.91">
        <route edges="end4_junction junction_end3"/>
    </vehicle>
    <vehicle id="veh1387" type="vtypeauto" depart="480.83">
        <route edges="end4_junction junction_end2"/>
    </vehicle>
    <vehicle id="veh2445" type="vtypeauto" depart="489.85">
        <route edges="end4_junction junction_end2"/>
    </vehicle>
    <vehicle id="veh2992" type="vtypeauto" depart="493.40">
        <route edges="end3_junction junction_end2"/>
    </vehicle>
    <vehicle id="veh2571" type="vtypeauto" depart="494.01">
        <route edges="end1_junction junction_end3"/>
    </vehicle>
    <vehicle id="veh930" type="vtypeauto" depart="496.24">
        <route edges="end3_junction junction_end1"/>
    </vehicle>
    <vehicle id="veh2755" type="vtypeauto" depart="502.65">
        <route edges="end3_junction junction_end4"/>
    </vehicle>
    <vehicle id="veh846" type="vtypeauto" depart="503.44">
        <route edges="end2_junction junction_end4"/>
    </vehicle>
    <vehicle id="veh1522" type="vtypeauto" depart="511.71">
        <route edges="end1_junction junction_end4"/>
    </vehicle>
    <vehicle id="veh1825" type="vtypeauto" depart="520.18">
        <route edges="end2_junction junction_end4"/>
    </vehicle>
    <vehicle id="veh1611" type="vtypeauto" depart="520.26">
        <route edges="end1_junction junction_end3"/>
    </vehicle>
    <vehicle id="veh2659" type="vtypeauto" depart="530.66">
        <route edges="end3_junction junction_end1"/>
    </vehicle>
    <vehicle id="veh2059" type="vtypeauto" depart="534.59">
        <route edges="end2_junction junction_end3"/>
    </vehicle>
    <vehicle id="veh645" type="vtypeauto" depart="539.85">
        <route edges="end3_junction junction_end2"/>
    </vehicle>
    <vehicle id="veh2835" type="vtypeauto" depart="545.11">
        <route edges="end2_junction junction_end4"/>
    </vehicle>
    <vehicle id="veh1578" type="vtypeauto" depart="546.68">
        <route edges="end1_junction junction_end2"/>
    </vehicle>
    <vehicle id="veh2424" type="vtypeauto" depart="547.52">
        <route edges="end2_junction junction_end1"/>
    </vehicle>
    <vehicle id="veh1221" type="vtypeauto" depart="552.50">
        <route edges="end4_junction junction_end3"/>
    </vehicle>
    <vehicle id="veh1059" type="vtypeauto" depart="574.84">
        <route edges="end4_junction junction_end3"/>
    </vehicle>
    <vehicle id="veh1119" type="vtypeauto" depart="575.63">
        <route edges="end1_junction junction_end2"/>
    </vehicle>
    <vehicle id="veh1996" type="vtypeauto" depart="580.14">
        <route edges="end4_junction junction_end2"/>
    </vehicle>
    <vehicle id="veh742" type="vtypeauto" depart="580.96">
        <route edges="end4_junction junction_end2"/>
    </vehicle>
    <vehicle id="veh418" type="vtypeauto" depart="584.53">
        <route edges="end2_junction junction_end1"/>
    </vehicle>
    <vehicle id="veh1641" type="vtypeauto" depart="585.49">
        <route edges="end4_junction junction_end2"/>
    </vehicle>
    <vehicle id="veh1483" type="vtypeauto" depart="585.64">
        <route edges="end4_junction junction_end3"/>
    </vehicle>
    <vehicle id="veh1992" type="vtypeauto" depart="605.61">
        <route edges="end3_junction junction_end2"/>
    </vehicle>
    <vehicle id="veh2279" type="vtypeauto" depart="607.84">
        <route edges="end1_junction junction_end4"/>
    </vehicle>
    <vehicle id="veh456" type="vtypeauto" depart="608.04">
        <route edges="end1_junction junction_end4"/>
    </vehicle>
    <vehicle id="veh253" type="vtypeauto" depart="622.50">
        <route edges="end1_junction junction_end2"/>
    </vehicle>
    <vehicle id="veh1316" type="vtypeauto" depart="623.15">
        <route edges="end2_junction junction_end1"/>
    </vehicle>
    <vehicle id="veh1390" type="vtypeauto" depart="624.05">
        <route edges="end2_junction junction_end4"/>
    </vehicle>
    <vehicle id="veh2763" type="vtypeauto" depart="624.69">
        <route edges="end3_junction junction_end2"/>
    </vehicle>
    <vehicle id="veh73" type="vtypeauto" depart="628.39">
        <route edges="end1_junction junction_end4"/>
    </vehicle>
    <vehicle id="veh238" type="vtypeauto" depart="636.37">
        <route edges="end1_junction junction_end3"/>
    </vehicle>
    <vehicle id="veh476" type="vtypeauto" depart="649.83">
        <route edges="end4_junction junction_end3"/>
    </vehicle>
    <vehicle id="veh2905" type="vtypeauto" depart="651.65">
        <route edges="end3_junction junction_end2"/>
    </vehicle>
    <vehicle id="veh1864" type="vtypeauto" depart="652.70">
        <route edges="end1_junction junction_end3"/>
    </vehicle>
    <vehicle id="veh2570" type="vtypeauto" depart="657.57">
        <route edges="end2_junction junction_end3"/>
    </vehicle>
    <vehicle id="veh2423" type="vtypeauto" depart="658.59">
        <route edges="end2_junction junction_end1"/>
    </vehicle>
    <vehicle id="veh1383" type="vtypeauto" depart="674.55">
        <route edges="end2_junction junction_end3"/>
    </vehicle>
    <vehicle id="veh21" type="vtypeauto" depart="680.70">
        <route edges="end4_junction junction_end3"/>
    </vehicle>
    <vehicle id="veh790" type="vtypeauto" depart="689.29">
        <route edges="end2_junction junction_end1"/>
    </vehicle>
    <vehicle id="veh2145" type="vtypeauto" depart="690.55">
        <route edges="end3_junction junction_end4"/>
    </vehicle>
    <vehicle id="veh808" type="vtypeauto" depart="691.61">
        <route edges="end3_junction junction_end4"/>
    </vehicle>
    <vehicle id="veh2105" type="vtypeauto" depart="695.58">
        <route edges="end4_junction junction_end1"/>
    </vehicle>
    <vehicle id="veh847" type="vtypeauto" depart="695.74">
        <route edges="end4_junction junction_end1"/>
    </vehicle>
    <vehicle id="veh670" type="vtypeauto" depart="704.84">
        <route edges="end2_junction junction_end3"/>
    </vehicle>
    <vehicle id="veh1826" type="vtypeauto" depart="708.60">
        <route edges="end4_junction junction_end1"/>
    </vehicle>
    <vehicle id="veh1981" type="vtypeauto" depart="713.78">
        <route edges="end2_junction junction_end1"/>
    </vehicle>
    <vehicle id="veh1388" type="vtypeauto" depart="715.68">
        <route edges="end3_junction junction_end2"/>
    </vehicle>
    <vehicle id="veh661" type="vtypeauto" depart="716.44">
        <route edges="end3_junction junction_end4"/>
    </vehicle>
    <vehicle id="veh2318" type="vtypeauto" depart="720.90">
        <route edges="end1_junction junction_end2"/>
    </vehicle>
    <vehicle id="veh2822" type="vtypeauto" depart="726.68">
        <route edges="end4_junction junction_end3"/>
    </vehicle>
    <vehicle id="veh987" type="vtypeauto" depart="729.71">
        <route edges="end2_junction junction_end1"/>
    </vehicle>
    <vehicle id="veh2163" type="vtypeauto" depart="734.87">
        <route edges="end4_junction junction_end1"/>
    </vehicle>
    <vehicle id="veh84" type="vtypeauto" depart="735.76">
        <route edges="end1_junction junction_end2"/>
    </vehicle>
    <vehicle id="veh938" type="vtypeauto" depart="737.04">
        <route edges="end2_junction junction_end1"/>
    </vehicle>
    <vehicle id="veh1064" type="vtypeauto" depart="744.31">
        <route edges="end3_junction junction_end2"/>
    </vehicle>
    <vehicle id="veh2544" type="vtypeauto" depart="748.12">
        <route edges="end1_junction junction_end4"/>
    </vehicle>
    <vehicle id="veh2456" type="vtypeauto" depart="749.07">
        <route edges="end1_junction junction_end2"/>
    </vehicle>
    <vehicle id="veh1610" type="vtypeauto" depart="752.97">
        <route edges="end2_junction junction_end1"/>
    </vehicle>
    <vehicle id="veh1814" type="vtypeauto" depart="763.42">
        <route edges="end1_junction junction_end3"/>
    </vehicle>
    <vehicle id="veh2113" type="vtypeauto" depart="769.24">
        <route edges="end2_junction junction_end4"/>
    </vehicle>
    <vehicle id="veh1443" type="vtypeauto" depart="771.43">
        <route edges="end3_junction junction_end2"/>
    </vehicle>
    <vehicle id="veh2235" type="vtypeauto" depart="772.05">
        <route edges="end2_junction junction_end1"/>
    </vehicle>
    <vehicle id="veh587" type="vtypeauto" depart="776.70">
        <route edges="end2_junction junction_end4"/>
    </vehicle>
    <vehicle id="veh1211" type="vtypeauto" depart="777.98">
        <route edges="end4_junction junction_end2"/>
    </vehicle>
    <vehicle id="veh1913" type="vtypeauto" depart="782.81">
        <route edges="end3_junction junction_end1"/>
    </vehicle>
    <vehicle id="veh1021" type="vtypeauto" depart="790.71">
        <route edges="end4_junction junction_end3"/>
    </vehicle>
    <vehicle id="veh2446" type="vtypeauto" depart="806.10">
        <route edges="end3_junction junction_end4"/>
    </vehicle>
    <vehicle id="veh2087" type="vtypeauto" depart="807.65">
        <route edges="end4_junction junction_end1"/>
    </vehicle>
    <vehicle id="veh924" type="vtypeauto" depart="809.81">
        <route edges="end1_junction junction_end3"/>
    </vehicle>
    <vehicle id="veh104" type="vtypeauto" depart="821.62">
        <route edges="end2_junction junction_end1"/>
    </vehicle>
    <vehicle id="veh1690" type="vtypeauto" depart="824.23">
        <route edges="end1_junction junction_end2"/>
    </vehicle>
    <vehicle id="veh713" type="vtypeauto" depart="825.14">
        <route edges="end1_junction junction_end2"/>
    </vehicle>
    <vehicle id="veh519" type="vtypeauto" depart="832.76">
        <route edges="end1_junction junction_end4"/>
    </vehicle>
    <vehicle id="veh1820" type="vtypeauto" depart="833.02">
        <route edges="end4_junction junction_end2"/>
    </vehicle>
    <vehicle id="veh1115" type="vtypeauto" depart="835.18">
        <route edges="end2_junction junction_end4"/>
    </vehicle>
    <vehicle id="veh1973" type="vtypeauto" depart="836.40">
        <route edges="end2_junction junction_end1"/>
    </vehicle>
    <vehicle id="veh2705" type="vtypeauto" depart="836.95">
        <route edges="end1_junction junction_end2"/>
    </vehicle>
    <vehicle id="veh1338" type="vtypeauto" depart="839.43">
        <route edges="end3_junction junction_end4"/>
    </vehicle>
    <vehicle id="veh106" type="vtypeauto" depart="867.75">
        <route edges="end2_junction junction_end1"/>
    </vehicle>
    <vehicle id="veh2271" type="vtypeauto" depart="872.74">
        <route edges="end2_junction junction_end1"/>
    </vehicle>
    <vehicle id="veh2927" type="vtypeauto" depart="874.20">
        <route edges="end2_junction junction_end4"/>
    </vehicle>
    <vehicle id="veh2610" type="vtypeauto" depart="876.43">
        <route edges="end4_junction junction_end3"/>
    </vehicle>
    <vehicle id="veh413" type="vtypeauto" depart="876.95">
        <route edges="end4_junction junction_end3"/>
    </vehicle>
    <vehicle id="veh2378" type="vtypeauto" depart="886.60">
        <route edges="end2_junction junction_end4"/>
    </vehicle>
    <vehicle id="veh2168" type="vtypeauto" depart="890.53">
        <route edges="end3_junction junction_end1"/>
    </vehicle>
    <vehicle id="veh2395" type="vtypeauto" depart="910.25">
        <route edges="end2_junction junction_end3"/>
    </vehicle>
    <vehicle id="veh347" type="vtypeauto" depart="916.12">
        <route edges="end4_junction junction_end2"/>
    </vehicle>
    <vehicle id="veh1380" type="vtypeauto" depart="922.68">
        <route edges="end4_junction junction_end2"/>
    </vehicle>
    <vehicle id="veh572" type="vtypeauto" depart="925.47">
        <route edges="end3_junction junction_end4"/>
    </vehicle>
    <vehicle id="veh2831" type="vtypeauto" depart="930.08">
        <route edges="end2_junction junction_end3"/>
    </vehicle>
    <vehicle id="veh2881" type="vtypeauto" depart="934.11">
        <route edges="end1_junction junction_end2"/>
    </vehicle>
    <vehicle id="veh940" type="vtypeauto" depart="961.10">
        <route edges="end4_junction junction_end1"/>
    </vehicle>
    <vehicle id="veh1485" type="vtypeauto" depart="967.95">
        <route edges="end1_junction junction_end3"/>
    </vehicle>
    <vehicle id="veh311" type="vtypeauto" depart="968.91">
        <route edges="end3_junction junction_end2"/>
    </vehicle>
    <vehicle id="veh2714" type="vtypeauto" depart="971.23">
        <route edges="end4_junction junction_end3"/>
    </vehicle>
    <vehicle id="veh1712" type="vtypeauto" depart="982.17">
        <route edges="end2_junction junction_end3"/>
    </vehicle>
    <vehicle id="veh256" type="vtypeauto" depart="986.00">
        <route edges="end2_junction junction_end4"/>
    </vehicle>
    <vehicle id="veh2233" type="vtypeauto" depart="987.73">
        <route edges="end4_junction junction_end1"/>
    </vehicle>
    <vehicle id="veh2010" type="vtypeauto" depart="989.39">
        <route edges="end3_junction junction_end2"/>
    </vehicle>
    <vehicle id="veh49" type="vtypeauto" depart="997.84">
        <route edges="end2_junction junction_end3"/>
    </vehicle>
    <vehicle id="veh2870" type="vtypeauto" depart="1028.29">
        <route edges="end3_junction junction_end2"/>
    </vehicle>
    <vehicle id="veh534" type="vtypeauto" depart="1036.61">
        <route edges="end4_junction junction_end3"/>
    </vehicle>
    <vehicle id="veh377" type="vtypeauto" depart="1041.58">
        <route edges="end3_junction junction_end2"/>
    </vehicle>
    <vehicle id="veh1003" type="vtypeauto" depart="1046.37">
        <route edges="end2_junction junction_end4"/>
    </vehicle>
    <vehicle id="veh774" type="vtypeauto" depart="1054.58">
        <route edges="end3_junction junction_end2"/>
    </vehicle>
    <vehicle id="veh2565" type="vtypeauto" depart="1055.28">
        <route edges="end3_junction junction_end2"/>
    </vehicle>
    <vehicle id="veh192" type="vtypeauto" depart="1080.86">
        <route edges="end4_junction junction_end2"/>
    </vehicle>
    <vehicle id="veh378" type="vtypeauto" depart="1081.49">
        <route edges="end4_junction junction_end2"/>
    </vehicle>
    <vehicle id="veh2880" type="vtypeauto" depart="1084.46">
        <route edges="end2_junction junction_end4"/>
    </vehicle>
    <vehicle id="veh1931" type="vtypeauto" depart="1097.82">
        <route edges="end1_junction junction_end3"/>
    </vehicle>
    <vehicle id="veh1317" type="vtypeauto" depart="1103.24">
        <route edges="end4_junction junction_end3"/>
    </vehicle>
    <vehicle id="veh0" type="vtypeauto" depart="1111.03">
        <route edges="end1_junction junction_end3"/>
    </vehicle>
    <vehicle id="veh2291" type="vtypeauto" depart="1133.68">
        <route edges="end4_junction junction_end1"/>
    </vehicle>
    <vehicle id="veh2744" type="vtypeauto" depart="1138.10">
        <route edges="end1_junction junction_end3"/>
    </vehicle>
    <vehicle id="veh1793" type="vtypeauto" depart="1151.28">
        <route edges="end3_junction junction_end4"/>
    </vehicle>
    <vehicle id="veh783" type="vtypeauto" depart="1159.24">
        <route edges="end2_junction junction_end1"/>
    </vehicle>
    <vehicle id="veh2120" type="vtypeauto" depart="1159.28">
        <route edges="end3_junction junction_end1"/>
    </vehicle>
    <vehicle id="veh215" type="vtypeauto" depart="1161.06">
        <route edges="end4_junction junction_end3"/>
    </vehicle>
    <vehicle id="veh134" type="vtypeauto" depart="1165.40">
        <route edges="end2_junction junction_end3"/>
    </vehicle>
    <vehicle id="veh1686" type="vtypeauto" depart="1183.16">
        <route edges="end1_junction junction_end4"/>
    </vehicle>
    <vehicle id="veh216" type="vtypeauto" depart="1188.98">
        <route edges="end4_junction junction_end3"/>
    </vehicle>
    <vehicle id="veh834" type="vtypeauto" depart="1195.98">
        <route edges="end4_junction junction_end2"/>
    </vehicle>
    <vehicle id="veh2232" type="vtypeauto" depart="1197.33">
        <route edges="end1_junction junction_end2"/>
    </vehicle>
    <vehicle id="veh202" type="vtypeauto" depart="1200.25">
        <route edges="end3_junction junction_end2"/>
    </vehicle>
    <vehicle id="veh2173" type="vtypeauto" depart="1213.16">
        <route edges="end4_junction junction_end2"/>
    </vehicle>
    <vehicle id="veh57" type="vtypeauto" depart="1216.68">
        <route edges="end4_junction junction_end3"/>
    </vehicle>
    <vehicle id="veh1789" type="vtypeauto" depart="1219.85">
        <route edges="end4_junction junction_end3"/>
    </vehicle>
    <vehicle id="veh2497" type="vtypeauto" depart="1222.64">
        <route edges="end4_junction junction_end1"/>
    </vehicle>
    <vehicle id="veh567" type="vtypeauto" depart="1223.99">
        <route edges="end4_junction junction_end2"/>
    </vehicle>
    <vehicle id="veh503" type="vtypeauto" depart="1231.19">
        <route edges="end3_junction junction_end1"/>
    </vehicle>
    <vehicle id="veh2511" type="vtypeauto" depart="1233.72">
        <route edges="end2_junction junction_end3"/>
    </vehicle>
    <vehicle id="veh2876" type="vtypeauto" depart="1237.84">
        <route edges="end1_junction junction_end4"/>
    </vehicle>
    <vehicle id="veh2548" type="vtypeauto" depart="1237.91">
        <route edges="end3_junction junction_end2"/>
    </vehicle>
    <vehicle id="veh1887" type="vtypeauto" depart="1238.11">
        <route edges="end1_junction junction_end2"/>
    </vehicle>
    <vehicle id="veh901" type="vtypeauto" depart="1244.60">
        <route edges="end1_junction junction_end4"/>
    </vehicle>
    <vehicle id="veh283" type="vtypeauto" depart="1252.85">
        <route edges="end2_junction junction_end4"/>
    </vehicle>
    <vehicle id="veh2885" type="vtypeauto" depart="1255.80">
        <route edges="end3_junction junction_end4"/>
    </vehicle>
    <vehicle id="veh931" type="vtypeauto" depart="1258.45">
        <route edges="end4_junction junction_end2"/>
    </vehicle>
    <vehicle id="veh1227" type="vtypeauto" depart="1262.26">
        <route edges="end2_junction junction_end3"/>
    </vehicle>
    <vehicle id="veh400" type="vtypeauto" depart="1270.12">
        <route edges="end2_junction junction_end1"/>
    </vehicle>
    <vehicle id="veh1831" type="vtypeauto" depart="1272.42">
        <route edges="end2_junction junction_end1"/>
    </vehicle>
    <vehicle id="veh2402" type="vtypeauto" depart="1277.00">
        <route edges="end1_junction junction_end2"/>
    </vehicle>
    <vehicle id="veh1856" type="vtypeauto" depart="1289.45">
        <route edges="end1_junction junction_end3"/>
    </vehicle>
    <vehicle id="veh1976" type="vtypeauto" depart="1292.51">
        <route edges="end4_junction junction_end2"/>
    </vehicle>
    <vehicle id="veh822" type="vtypeauto" depart="1302.77">
        <route edges="end4_junction junction_end2"/>
    </vehicle>
    <vehicle id="veh951" type="vtypeauto" depart="1303.66">
        <route edges="end1_junction junction_end4"/>
    </vehicle>
    <vehicle id="veh690" type="vtypeauto" depart="1308.61">
        <route edges="end1_junction junction_end4"/>
    </vehicle>
    <vehicle id="veh1046" type="vtypeauto" depart="1313.51">
        <route edges="end2_junction junction_end3"/>
    </vehicle>
    <vehicle id="veh1163" type="vtypeauto" depart="1322.15">
        <route edges="end1_junction junction_end4"/>
    </vehicle>
    <vehicle id="veh2931" type="vtypeauto" depart="1322.96">
        <route edges="end3_junction junction_end1"/>
    </vehicle>
    <vehicle id="veh1892" type="vtypeauto" depart="1326.97">
        <route edges="end2_junction junction_end4"/>
    </vehicle>
    <vehicle id="veh366" type="vtypeauto" depart="1327.78">
        <route edges="end1_junction junction_end2"/>
    </vehicle>
    <vehicle id="veh249" type="vtypeauto" depart="1338.55">
        <route edges="end3_junction junction_end1"/>
    </vehicle>
    <vehicle id="veh403" type="vtypeauto" depart="1340.71">
        <route edges="end1_junction junction_end4"/>
    </vehicle>
    <vehicle id="veh1025" type="vtypeauto" depart="1346.91">
        <route edges="end4_junction junction_end3"/>
    </vehicle>