<routes>
	<vType id="vtypeauto" accel="5" decel="10" sigma="0.0" length="4"
		   minGap="0" maxSpeed="36" color="0,0,1" probability="1"
		   carFollowModel="CC" tauEngine="0.5" omegaN="0.2" xi="1" c1="0.5"
		   lanesCount="4" ccAccel="4" ploegKp="0.2" ploegKd="0.7"
		   ploegH="0.5" />
	<!-- minGap is controlled by plexe parameters -->

	<route id="route_0" edges="end1_junction junction_end4"/>
	<route id="route_1" edges="end1_junction junction_end3"/>
	<route id="route_2" edges="end1_junction junction_end2"/>	

	<route id="route_3" edges="end2_junction junction_end1"/>	
	<route id="route_4" edges="end2_junction junction_end4"/>
	<route id="route_5" edges="end2_junction junction_end3"/>

	<route id="route_6" edges="end3_junction junction_end2"/>
	<route id="route_7" edges="end3_junction junction_end1"/>	
	<route id="route_8" edges="end3_junction junction_end4"/>

	<route id="route_9" edges="end4_junction junction_end3"/>	
	<route id="route_10" edges="end4_junction junction_end2"/>
	<route id="route_11" edges="end4_junction junction_end1"/>

	<trip id="trip_0" depart="0" from="end1_junction" to="junction_end4" type="vtypeauto"/>
	<trip id="trip_1" depart="5" from="end2_junction" to="junction_end1" type="vtypeauto"/>
	
	<trip id="trip_2" depart="10" from="end3_junction" to="junction_end2" type="vtypeauto"/>
	<trip id="trip_3" depart="15" from="end4_junction" to="junction_end3" type="vtypeauto"/>
	
</routes>
